Version 4
SHEET 1 940 680
WIRE -128 48 -240 48
WIRE 16 48 -48 48
WIRE 192 48 80 48
WIRE 336 48 192 48
WIRE 464 64 400 64
WIRE 528 64 464 64
WIRE 656 64 592 64
WIRE 688 64 656 64
WIRE -240 80 -240 48
WIRE 336 80 304 80
WIRE 192 96 192 48
WIRE 656 96 656 64
WIRE 304 144 304 80
WIRE 464 144 464 64
WIRE 464 144 304 144
WIRE -240 208 -240 160
WIRE 192 208 192 176
WIRE 192 208 -240 208
WIRE 656 208 656 176
WIRE 656 208 192 208
FLAG 192 208 0
FLAG -240 48 Vi
IOPIN -240 48 In
FLAG 688 64 Vo
IOPIN 688 64 Out
SYMBOL res -32 32 R90
WINDOW 0 0 56 VBottom 2
WINDOW 3 32 56 VTop 2
SYMATTR InstName R1
SYMATTR Value 1
SYMBOL voltage -240 64 R0
WINDOW 123 24 124 Left 2
WINDOW 39 0 0 Left 2
SYMATTR Value2 AC 1
SYMATTR InstName V1
SYMATTR Value ""
SYMBOL Opamps\\opamp 368 128 M180
SYMATTR InstName U1
SYMBOL res 672 192 R180
WINDOW 0 36 76 Left 2
WINDOW 3 36 40 Left 2
SYMATTR InstName R2
SYMATTR Value 1
SYMBOL ind 176 80 R0
SYMATTR InstName L1
SYMATTR Value 1
SYMBOL cap 80 32 R90
WINDOW 0 0 32 VBottom 2
WINDOW 3 32 32 VTop 2
SYMATTR InstName C1
SYMATTR Value 1
SYMBOL cap 528 80 R270
WINDOW 0 32 32 VTop 2
WINDOW 3 0 32 VBottom 2
SYMATTR InstName C2
SYMATTR Value 1
TEXT -272 232 Left 2 !.ac dec 100 1e-2 1e2
TEXT -272 272 Left 2 !.lib opamp.sub
