Version 4
SHEET 1 1096 680
WIRE 560 -80 368 -80
WIRE 832 -80 624 -80
WIRE -256 32 -384 32
WIRE -112 32 -176 32
WIRE 48 32 -112 32
WIRE 160 48 112 48
WIRE 224 48 160 48
WIRE 368 48 368 -80
WIRE 368 48 304 48
WIRE 432 48 368 48
WIRE 592 48 512 48
WIRE 704 48 592 48
WIRE -384 64 -384 32
WIRE -112 64 -112 32
WIRE 48 64 16 64
WIRE 832 64 832 -80
WIRE 832 64 768 64
WIRE 704 80 672 80
WIRE 592 96 592 48
WIRE 16 112 16 64
WIRE 160 112 160 48
WIRE 160 112 16 112
WIRE 672 144 672 80
WIRE 832 144 832 64
WIRE 832 144 672 144
WIRE -384 160 -384 144
WIRE -112 176 -112 128
WIRE 592 208 592 160
FLAG 592 208 0
FLAG -384 160 0
FLAG -112 176 0
SYMBOL voltage -384 48 R0
WINDOW 123 24 124 Left 2
WINDOW 39 0 0 Left 2
SYMATTR Value2 AC 1
SYMATTR InstName V1
SYMATTR Value ""
SYMBOL Opamps\\opamp 736 128 M180
SYMATTR InstName U1
SYMBOL res -160 16 R90
WINDOW 0 0 56 VBottom 2
WINDOW 3 32 56 VTop 2
SYMATTR InstName R2
SYMATTR Value 1
SYMBOL cap -128 64 R0
SYMATTR InstName C2
SYMATTR Value 1
SYMBOL cap 624 -96 R90
WINDOW 0 0 32 VBottom 2
WINDOW 3 32 32 VTop 2
SYMATTR InstName C1
SYMATTR Value 1
SYMBOL res 528 32 R90
WINDOW 0 0 56 VBottom 2
WINDOW 3 32 56 VTop 2
SYMATTR InstName R1
SYMATTR Value 1
SYMBOL res 320 32 R90
WINDOW 0 0 56 VBottom 2
WINDOW 3 32 56 VTop 2
SYMATTR InstName R3
SYMATTR Value 1
SYMBOL cap 608 160 R180
WINDOW 0 24 56 Left 2
WINDOW 3 24 8 Left 2
SYMATTR InstName C3
SYMATTR Value 1
SYMBOL Opamps\\opamp 80 -16 R0
SYMATTR InstName U2
TEXT -416 216 Left 2 !.ac dec 100 1e-2 1e2
TEXT -416 256 Left 2 !.lib opamp.sub
