Version 4
SHEET 1 880 680
WIRE -1056 -784 -1152 -784
WIRE -896 -784 -976 -784
WIRE -624 -784 -832 -784
WIRE -464 -784 -624 -784
WIRE -288 -784 -464 -784
WIRE -160 -768 -224 -768
WIRE -48 -768 -160 -768
WIRE 144 -768 32 -768
WIRE 304 -768 144 -768
WIRE -288 -752 -336 -752
WIRE -1152 -736 -1152 -784
WIRE -624 -720 -624 -784
WIRE -336 -704 -336 -752
WIRE -160 -704 -160 -768
WIRE -160 -704 -336 -704
WIRE 144 -704 144 -768
WIRE -1152 -608 -1152 -656
WIRE -624 -576 -624 -640
WIRE -624 -576 -768 -576
WIRE 144 -560 144 -624
WIRE 144 -560 0 -560
WIRE -624 -512 -624 -576
WIRE -768 -496 -768 -576
WIRE 144 -496 144 -560
WIRE 0 -480 0 -560
WIRE -752 -384 -752 -432
WIRE -624 -384 -624 -448
WIRE -624 -384 -752 -384
WIRE -496 -384 -624 -384
WIRE 16 -368 16 -416
WIRE 144 -368 144 -432
WIRE 144 -368 16 -368
WIRE 272 -368 144 -368
WIRE -624 -320 -624 -384
WIRE -496 -320 -496 -384
WIRE -464 -320 -464 -784
WIRE 144 -304 144 -368
WIRE 272 -304 272 -368
WIRE 304 -304 304 -768
WIRE -624 -176 -624 -240
WIRE -480 -176 -480 -256
WIRE -480 -176 -624 -176
WIRE 144 -160 144 -224
WIRE 288 -160 288 -240
WIRE 288 -160 144 -160
WIRE -624 -96 -624 -176
WIRE 144 -80 144 -160
WIRE -784 80 -784 -432
WIRE -624 80 -624 -16
WIRE -624 80 -784 80
WIRE -16 96 -16 -416
WIRE 144 96 144 0
WIRE 144 96 -16 96
WIRE -624 112 -624 80
WIRE 144 128 144 96
WIRE -624 224 -624 192
WIRE 144 240 144 208
FLAG -624 224 0
FLAG -1152 -608 0
FLAG 144 240 0
FLAG -1152 -784 Vi
IOPIN -1152 -784 In
FLAG 144 -768 Vo
IOPIN 144 -768 Out
SYMBOL Opamps\\opamp -256 -832 R0
SYMATTR InstName U1
SYMBOL res 48 -784 R90
WINDOW 0 0 56 VBottom 2
WINDOW 3 32 56 VTop 2
SYMATTR InstName R2
SYMATTR Value 1k
SYMBOL voltage -1152 -752 R0
WINDOW 0 -50 7 Left 2
WINDOW 123 15 104 Left 2
WINDOW 39 0 0 Left 2
SYMATTR InstName V1
SYMATTR Value2 AC 1
SYMATTR Value ""
SYMBOL cap -832 -800 R90
WINDOW 0 0 32 VBottom 2
WINDOW 3 32 32 VTop 2
SYMATTR InstName C1
SYMATTR Value 4.98n
SYMBOL res -960 -800 R90
WINDOW 0 0 56 VBottom 2
WINDOW 3 32 56 VTop 2
SYMATTR InstName R1
SYMATTR Value 1k
SYMBOL res -608 -624 R180
WINDOW 0 36 76 Left 2
WINDOW 3 36 40 Left 2
SYMATTR InstName Z1
SYMATTR Value 1k
SYMBOL Opamps\\opamp -704 -464 M270
SYMATTR InstName U2
SYMBOL Opamps\\opamp -544 -288 M90
SYMATTR InstName U3
SYMBOL res -608 0 R180
WINDOW 0 36 76 Left 2
WINDOW 3 36 40 Left 2
SYMATTR InstName Z4
SYMATTR Value 1k
SYMBOL cap -640 -512 R0
SYMATTR InstName Z2
SYMATTR Value 4.98n
SYMBOL res -640 -336 R0
SYMATTR InstName Z3
SYMATTR Value 1k
SYMBOL res -640 96 R0
SYMATTR InstName Z5
SYMATTR Value 1k
SYMBOL res 160 -608 R180
WINDOW 0 36 76 Left 2
WINDOW 3 36 40 Left 2
SYMATTR InstName Z1_
SYMATTR Value 1k
SYMBOL Opamps\\opamp 64 -448 M270
SYMATTR InstName U4
SYMBOL Opamps\\opamp 224 -272 M90
SYMATTR InstName U5
SYMBOL res 160 16 R180
WINDOW 0 36 76 Left 2
WINDOW 3 36 40 Left 2
SYMATTR InstName Z4_
SYMATTR Value 1k
SYMBOL cap 128 -496 R0
SYMATTR InstName Z2_
SYMATTR Value 4.98n
SYMBOL res 128 -320 R0
SYMATTR InstName Z3_
SYMATTR Value 1k
SYMBOL res 128 112 R0
SYMATTR InstName Z5_
SYMATTR Value 1k
TEXT -1072 -592 Left 2 !.ac dec 100 1e3 5e5
TEXT -1072 -552 Left 2 !.lib opamp.sub
