Version 4
SHEET 1 880 680
WIRE -64 64 -128 64
WIRE 192 64 16 64
WIRE 448 64 272 64
WIRE 192 96 160 96
WIRE 304 96 272 96
WIRE 448 96 448 64
WIRE 192 128 112 128
WIRE 304 128 272 128
WIRE -128 160 -128 64
WIRE 192 160 -128 160
WIRE 304 160 272 160
WIRE -128 176 -128 160
WIRE 448 224 448 176
WIRE 448 224 272 224
WIRE 192 256 144 256
WIRE 320 256 272 256
WIRE -128 272 -128 240
WIRE 144 432 144 256
WIRE 192 432 144 432
WIRE 320 432 320 256
WIRE 320 432 272 432
FLAG 160 96 Vi
FLAG 32 128 0
FLAG 304 160 0
FLAG -128 272 0
FLAG -128 64 Vo
FLAG -176 464 0
FLAG -80 464 0
FLAG -176 384 +Vcc
FLAG -80 384 -Vcc
FLAG 304 96 -Vcc
FLAG 304 128 +Vcc
SYMBOL AutoGenerated\\UAF42 224 160 R0
SYMATTR InstName U1
SYMBOL res 432 80 R0
SYMATTR InstName R1
SYMATTR Value 33k
SYMBOL res 288 416 R90
WINDOW 0 0 56 VBottom 2
WINDOW 3 32 56 VTop 2
SYMATTR InstName R2
SYMATTR Value 33k
SYMBOL res 128 112 R90
WINDOW 0 0 56 VBottom 2
WINDOW 3 32 56 VTop 2
SYMATTR InstName Rq
SYMATTR Value 80.9k
SYMBOL res -80 48 M90
WINDOW 0 0 56 VBottom 2
WINDOW 3 32 56 VTop 2
SYMATTR InstName R3
SYMATTR Value 1k
SYMBOL cap -112 176 M0
SYMATTR InstName C1
SYMATTR Value 34.3p
SYMBOL voltage -176 368 R0
WINDOW 123 0 0 Left 0
WINDOW 39 0 0 Left 0
SYMATTR InstName V1
SYMATTR Value 10
SYMBOL voltage -80 480 R180
WINDOW 0 -58 97 Left 2
WINDOW 3 -46 16 Left 2
WINDOW 123 0 0 Left 0
WINDOW 39 0 0 Left 0
SYMATTR InstName V2
SYMATTR Value 10
TEXT -186 514 Left 2 !.ac dec 100 1e-2 1e2
